
**** 11/08/25 16:10:48 ******* PSpice Lite (March 2016) ******* ID# 10813 ****

 ** Profile: "SCHEMATIC1-timp"  [ C:\Users\Anna Chis\Desktop\ANUL III\Project_CEF\project_refacut2-PSpiceFiles\SCHEMATIC1\timp.sim ] 


 ****     CIRCUIT DESCRIPTION


******************************************************************************




** Creating circuit file "timp.cir" 
** WARNING: THIS AUTOMATICALLY GENERATED FILE MAY BE OVERWRITTEN BY SUBSEQUENT SIMULATIONS

*Libraries: 
* Profile Libraries :
* Local Libraries :
.LIB "c:/cadence/spb_17.2/tools/capture/library/pspice/modele_a1_lib/modele_a1_lib/1n4148.lib" 
.LIB "c:/cadence/spb_17.2/tools/capture/library/pspice/modele_a1_lib/modele_a1_lib/bc807-25.lib" 
.LIB "c:/cadence/spb_17.2/tools/capture/library/pspice/modele_a1_lib/modele_a1_lib/bc817-25.lib" 
.LIB "c:/cadence/spb_17.2/tools/capture/library/pspice/modele_a1_lib/modele_a1_lib/bc846b.lib" 
.LIB "c:/cadence/spb_17.2/tools/capture/library/pspice/modele_a1_lib/modele_a1_lib/bc856b.lib" 
.LIB "c:/cadence/spb_17.2/tools/capture/library/pspice/modele_a1_lib/modele_a1_lib/bzx84c2v7.lib" 
.LIB "c:/cadence/spb_17.2/tools/capture/library/pspice/modele_a1_lib/modele_a1_lib/bzx84c5v1.lib" 
.LIB "c:/cadence/spb_17.2/tools/capture/library/pspice/modele_a1_lib/modele_a1_lib/bzx84c5v6.lib" 
.LIB "c:/cadence/spb_17.2/tools/capture/library/pspice/modele_a1_lib/modele_a1_lib/bzx84c6v2.lib" 
.LIB "c:/cadence/spb_17.2/tools/capture/library/pspice/modele_a1_lib/modele_a1_lib/bzx84c6v8.lib" 
.LIB "c:/cadence/spb_17.2/tools/capture/library/pspice/modele_a1_lib/modele_a1_lib/bzx84c8v2.lib" 
.LIB "c:/cadence/spb_17.2/tools/capture/library/pspice/modele_a1_lib/modele_a1_lib/bzx84c10.lib" 
.LIB "c:/cadence/spb_17.2/tools/capture/library/pspice/modele_a1_lib/modele_a1_lib/irfr120npbf.lib" 
.LIB "c:/cadence/spb_17.2/tools/capture/library/pspice/modele_a1_lib/modele_a1_lib/mjd31cg.lib" 
.LIB "c:/cadence/spb_17.2/tools/capture/library/pspice/modele_a1_lib/modele_a1_lib/mjd32cg.lib" 
.LIB "c:/cadence/spb_17.2/tools/capture/library/pspice/modele_a1_lib/modele_a1_lib/mmbfj177lt1g.lib" 
.LIB "c:/cadence/spb_17.2/tools/capture/library/pspice/modele_a1_lib/modele_a1_lib/mmbfj309lt1g.lib" 
.LIB "c:/cadence/spb_17.2/tools/capture/library/pspice/modele_a1_lib/modele_a1_lib/opto.lib" 
.LIB "c:/cadence/spb_17.2/tools/capture/library/pspice/modele_a1_lib/modele_a1_lib/smls14bet.lib" 
* From [PSPICE NETLIST] section of C:\Users\Anna Chis\AppData\Roaming\SPB_16.6\cdssetup\OrCAD_PSpice\17.2.0\PSpice.ini file:
.lib "nomd.lib" 

*Analysis directives: 
.TRAN  0 500m 0.2m 0.2ms SKIPBP 
.OPTIONS ADVCONV
.PROBE64 V(alias(*)) I(alias(*)) W(alias(*)) D(alias(*)) NOISE(alias(*)) 
.INC "..\SCHEMATIC1.net" 



**** INCLUDING SCHEMATIC1.net ****
* source PROJECT_REFACUT2
V_V1         N72278 0 11Vdc
R_R7         0 N72526  1k TC=0,0 
Q_Q21         N72278 N72432 N72496 QBC856B 
R_R22         N72702 N72496  3k TC=0,0 
V_V3         0 N72702 11Vdc
C_C6         N72842 N72496  100n  TC=0,0 
Q_Q18         N72420 N72420 N72362 QBC856B 
Q_Q19         N72432 N72610 N72644 QBC846B 
R_R19         N72356 N72278  200 TC=0,0 
R_R20         N72362 N72278  200 TC=0,0 
Q_Q17         N72432 N72420 N72356 QBC856B 
Q_Q20         N72420 N72526 N72644 QBC846B 
R_R8         N72496 N72526  2.3k TC=0,0 
Q_Q22         N73537 N73537 N734071 QBC846B 
Q_Q23         N72644 N73537 N734251 QBC846B 
R_R23         N73537 N72278  2.7k TC=0,0 
R_R24         N72702 N734071  1k TC=0,0 
R_R25         N72702 N734251  1k TC=0,0 
R_R26         0 N73982  400 TC=0,0 
C_C7         N72496 N73982  10u  TC=0,0 
C_C8         0 N72610  100n  TC=0,0 
X_R27         N76222 N72842 N72842 POT PARAMS: SET=14 VALUE=15k
X_R28         0 0 N76264 POT PARAMS: SET=14 VALUE=15k
R_R29         N76264 N72610  1k TC=0,0 
R_R30         N76222 N72610  1k TC=0,0 

**** RESUMING timp.cir ****
.END

**** 11/08/25 16:10:48 ******* PSpice Lite (March 2016) ******* ID# 10813 ****

 ** Profile: "SCHEMATIC1-timp"  [ C:\Users\Anna Chis\Desktop\ANUL III\Project_CEF\project_refacut2-PSpiceFiles\SCHEMATIC1\timp.sim ] 


 ****     BJT MODEL PARAMETERS


******************************************************************************




               QBC846B         QBC856B         
               NPN             PNP             
       LEVEL    1               1            
          IS   18.220000E-15   20.140000E-15 
          BF  324.4           315.3          
          NF     .9932           .9974       
         VAF   82              39.15         
         IKF     .109            .079        
         ISE  289.400000E-18    6.578000E-15 
          NE    1.4             1.45         
          BR    8.29            8.68         
          NR     .9931           .9952       
         VAR   17.9             9.5          
         IKR     .09             .09         
         ISC    9.982000E-12   16.330000E-15 
          NC    1.763           1.15         
         ISS    0               0            
          RB   10              10            
         RBM    5               5.000000E-06 
         IRB    5.000000E-06    5.000000E-06 
          RE     .649            .663        
          RC     .7014           .718        
         CJE   12.440000E-12   11.350000E-12 
         VJE     .7579           .7071       
         MJE     .3656           .3808       
         CJC    3.347000E-12    6.395000E-12 
         VJC     .5463           .4951       
         MJC     .391            .44         
        XCJC     .6193           .6288       
         CJS    0               0            
         VJS     .75             .75         
         MJS     .333            .333        
          FC     .979            .9059       
          TF  490.800000E-12  654.600000E-12 
         XTF    9.51            5.387        
         VTF    2.927           6.245        
         ITF     .3131           .2108       
          TR   90.000000E-09   55.000000E-09 
          KF    0               0            
          AF    1               1            
          CN    2.42            2.2          
           D     .87             .52         

Reducing minimum delta to make the circuit converge.
Reducing minimum delta to make the circuit converge.
Reducing minimum delta to make the circuit converge.
Reducing minimum delta to make the circuit converge.
Reducing minimum delta to make the circuit converge.
Reducing minimum delta to make the circuit converge.

ERROR(ORPSIM-15138): Convergence problem in Transient Analysis at Time =  .462.
         Time step =  155.9E-21, minimum allowable step size =  1.000E-18

  These voltages failed to converge:

    V(N72842)                 =   -10.00GV  \   -10.00GV
    V(N72362)                 =   -3.160KV  \    929.02V
    V(N73537)                 =   -1.796KV  \   -451.59V
    V(N734071)                =   -1.795KV  \   -451.99V
    V(N734251)                =   -436.44V  \    906.59V
    V(N73982)                 =   -8.272MV  \   -8.249MV

  These supply currents failed to converge:

    I(V_V1)                   =    41.43KA  \    51.03KA

  These devices failed to converge:
    Q_Q21     Q_Q18     Q_Q19     Q_Q17     Q_Q20     Q_Q22     Q_Q23     



  Last node voltages tried were:

 NODE   VOLTAGE     NODE   VOLTAGE     NODE   VOLTAGE     NODE   VOLTAGE


(N72278)   11.0000 (N72356) 10.29E+06 (N72362)-3159.5000 (N72420) 10.50E+06     

(N72432) 10.53E+06 (N72496)-48.21E+06 (N72526)-14.61E+06 (N72610) 10.83E+06     

(N72644) 10.57E+06 (N72702)  -11.0000 (N72842)-10.00E+09 (N73537)-1795.5000     

(N73982)-8.272E+06 (N76222) 62.43E+06 (N76264) 10.78E+06 (N734071)-1795.0000    

(N734251) -436.4400                   


**** Interrupt ****
