
**** 11/13/25 00:31:11 ******* PSpice Lite (March 2016) ******* ID# 10813 ****

 ** Profile: "SCHEMATIC1-temp"  [ c:\users\anna chis\desktop\anul iii\project_cef\project_refacut2-PSpiceFiles\SCHEMATIC1\temp.sim ] 


 ****     CIRCUIT DESCRIPTION


******************************************************************************




** Creating circuit file "temp.cir" 
** WARNING: THIS AUTOMATICALLY GENERATED FILE MAY BE OVERWRITTEN BY SUBSEQUENT SIMULATIONS

*Libraries: 
* Profile Libraries :
* Local Libraries :
.LIB "c:/cadence/spb_17.2/tools/capture/library/pspice/modele_a1_lib/modele_a1_lib/1n4148.lib" 
.LIB "c:/cadence/spb_17.2/tools/capture/library/pspice/modele_a1_lib/modele_a1_lib/bc807-25.lib" 
.LIB "c:/cadence/spb_17.2/tools/capture/library/pspice/modele_a1_lib/modele_a1_lib/bc817-25.lib" 
.LIB "c:/cadence/spb_17.2/tools/capture/library/pspice/modele_a1_lib/modele_a1_lib/bc846b.lib" 
.LIB "c:/cadence/spb_17.2/tools/capture/library/pspice/modele_a1_lib/modele_a1_lib/bc856b.lib" 
.LIB "c:/cadence/spb_17.2/tools/capture/library/pspice/modele_a1_lib/modele_a1_lib/bzx84c2v7.lib" 
.LIB "c:/cadence/spb_17.2/tools/capture/library/pspice/modele_a1_lib/modele_a1_lib/bzx84c5v1.lib" 
.LIB "c:/cadence/spb_17.2/tools/capture/library/pspice/modele_a1_lib/modele_a1_lib/bzx84c5v6.lib" 
.LIB "c:/cadence/spb_17.2/tools/capture/library/pspice/modele_a1_lib/modele_a1_lib/bzx84c6v2.lib" 
.LIB "c:/cadence/spb_17.2/tools/capture/library/pspice/modele_a1_lib/modele_a1_lib/bzx84c6v8.lib" 
.LIB "c:/cadence/spb_17.2/tools/capture/library/pspice/modele_a1_lib/modele_a1_lib/bzx84c8v2.lib" 
.LIB "c:/cadence/spb_17.2/tools/capture/library/pspice/modele_a1_lib/modele_a1_lib/bzx84c10.lib" 
.LIB "c:/cadence/spb_17.2/tools/capture/library/pspice/modele_a1_lib/modele_a1_lib/irfr120npbf.lib" 
.LIB "c:/cadence/spb_17.2/tools/capture/library/pspice/modele_a1_lib/modele_a1_lib/mjd31cg.lib" 
.LIB "c:/cadence/spb_17.2/tools/capture/library/pspice/modele_a1_lib/modele_a1_lib/mjd32cg.lib" 
.LIB "c:/cadence/spb_17.2/tools/capture/library/pspice/modele_a1_lib/modele_a1_lib/mmbfj177lt1g.lib" 
.LIB "c:/cadence/spb_17.2/tools/capture/library/pspice/modele_a1_lib/modele_a1_lib/mmbfj309lt1g.lib" 
.LIB "c:/cadence/spb_17.2/tools/capture/library/pspice/modele_a1_lib/modele_a1_lib/opto.lib" 
.LIB "c:/cadence/spb_17.2/tools/capture/library/pspice/modele_a1_lib/modele_a1_lib/smls14bet.lib" 
* From [PSPICE NETLIST] section of C:\Users\Anna Chis\AppData\Roaming\SPB_16.6\cdssetup\OrCAD_PSpice\17.2.0\PSpice.ini file:
.lib "nomd.lib" 

*Analysis directives: 
.TRAN  0 500ms 0.2m 0.2ms SKIPBP 
.TEMP 0 25 70
.OPTIONS ADVCONV
.PROBE64 V(alias(*)) I(alias(*)) W(alias(*)) D(alias(*)) NOISE(alias(*)) 
.INC "..\SCHEMATIC1.net" 



ERROR(ORPSIM-15347): Cannot open input file c:\users\anna chis\desktop\anul iii\project_cef\project_refacut2-PSpiceFiles\SCHEMATIC1\SCHEMATIC1.net.


ABORTING SIMULATION
**** 11/13/25 00:31:11 ******* PSpice Lite (March 2016) ******* ID# 10813 ****

 ** Profile: "SCHEMATIC1-temp"  [ c:\users\anna chis\desktop\anul iii\project_cef\project_refacut2-PSpiceFiles\SCHEMATIC1\temp.sim ] 


 ****     JOB STATISTICS SUMMARY


******************************************************************************



Node counts:
  Top level (NUNODS)                =           1
  External (NCNODS)                 =           1
  Total (NUMNOD)                    =           0

Total device count (NUMEL)          =           0

Number of subcircuits (X)           =           0

Analysis statistics:
  No. total time points (NUMTTP)    =           0
  No. rejected time points (NUMRTP) =           0
  No. iterations (NUMNIT)           =           0

Load Threads                        =           1

Runtime statistics:                       Seconds      Iterations
  Readin                            =        0.00
  General setup                     =        0.00
  CMI setup                     =        0.00
  Setup                             =        0.00
  DC sweep                          =        0.00               0
  Bias point                        =        0.00               0
  AC and noise                      =        0.00               0
  Total transient analysis          =        0.00
  Output                            =        0.00
  Overhead                          =         .11
  Total job time                    =        1.08
